         MACRO                                                          00020001
&NAME    GBPOS                                                          00040001
         GBLA  &IHBBPX,&IHBBPY                                          00060001
         IHBERMAC 185,&IHBBPX,&IHBBPY                                   00080001
         MEND                                                           00100001
