         MACRO                                                          00020001
&NAME    GDPD                                                           00040001
&NAME    IHBGAM2 10885                                                  00060001
         MEND                                                           00080001
