         MACRO                                                          00020001
&NAME    GDRD                                                           00040001
&NAME    IHBGAM2 10883                                                  00060001
         MEND                                                           00080001
