         MACRO                                                          00020001
&NAME    GENSD                                                          00040001
&NAME    IHBGAM2 10886                                                  00060001
         MEND                                                           00080001
