         MACRO                                                          00020001
&NAME  GEOS                                                             00040001
&NAME    IHBGAM2 10881                                                  00060001
         MEND                                                           00080001
