         MACRO                                                          00020001
&NAME    GESD                                                           00040001
&NAME    IHBGAM2 10884                                                  00060001
         MEND                                                           00080001
