         MACRO                                                          00020001
&NAME    GEVI2                                                          00040001
         GBLA  &IHBMOD                                                  00060001
&NAME    IHBGAM2 10757                                                  00080001
&IHBMOD  SETA  2                                                        00100001
         MEND                                                           00120001
