         MACRO                                                          00020001
&NAME    GMVA  &ADDR,&GROUP,&BADDR=0    MOVE IMMEDIATE ADDRESS 2AEB     00040001
&NAME    IHBGAM1 10987,&ADDR,&GROUP                                     00060001
        IHBGAM1 ,&BADDR(1),&BADDR(2)                                    00080001
         MEND                                                           00100001
