         MACRO                                                          00020001
&NAME  GNOP2                                                            00040001
&NAME    IHBGAM2 10880                                                  00060001
         MEND                                                           00080001
