       MACRO                                                            00020001
&NAME    GNOP4 &ADDR,&GROUP                                             00040001
&NAME    IHBGAM1 10944,&ADDR,&GROUP                                     00060001
         MEND                                                           00080001
