         MACRO                                                          00020001
&NAME    GPDI                                                           00040001
&NAME    IHBGAM2 10887                                                  00060001
         MEND                                                           00080001
