         MACRO                                                          00020001
&NAME  GSRT                                                             00040001
&NAME    IHBGAM2 10882                                                  00060001
         MEND                                                           00080001
