         MACRO                                                          00020001
&NAME    GSXY  &ADDR,&GROUP        STORE X-Y POSITION REGISTERS 2AEA    00040001
&NAME    IHBGAM1 10986,&ADDR,&GROUP                                     00060001
         MEND                                                           00080001
