         MACRO                                                          00020001
&NAME    GTDD  &ADDR,&GROUP        TRANSFER ON DEFERRED DETECT 2AFC     00040001
&NAME    IHBGAM1 11004,&ADDR,&GROUP                                     00060001
         MEND                                                           00080001
