         MACRO                                                          00020001
&NAME    GTND  &ADDR,&GROUP   TRANSFER NO DETECT 2AFD                   00040001
&NAME    IHBGAM1 11005,&ADDR,&GROUP                                     00060001
         MEND                                                           00080001
