         MACRO                                                          00020001
&NAME    GTRU  &ADDR,&GROUP                                             00040001
&NAME    IHBGAM1 11007,&ADDR,&GROUP                                     00060001
         MEND                                                           00080001
