         MACRO                                                          00020000
&NAME    IHBGAM2 &CODE                                                  00040000
         GBLA  &IHBBLC,&IHBBLIM,&IHBSMSW                                00060000
         IHBGAM3                                                        00080000
&IHBBLC    SETA  &IHBBLC+2              UPDATE BUFFER-LOC COUNTER       00100000
&NAME    DC    H'&CODE'                                                 00120000
         AIF   (&IHBBLIM GE &IHBBLC).OK                                 00140000
         IHBERMAC 182                                                   00160000
.OK      MEND                                                           00180000
