* %GOTO IKJEXECPLS;                       /*                            00002000
         MACRO                                                          00006000
&NAME    IKJEXEC &LV=,&A=    MACRO FOR ISSUING OWN GETMAIN              00008000
         GBLA  &IKJEXA                                                  00010000
         AIF   ('&SYSECT.' NE 'IKJCT433').IKJT436 TEST ID 433/436       00014000
         AIF   (&IKJEXA NE 0).T3FMAN    TEST IF FIRST CALL              00018000
&IKJEXA SETA 1                                                          00020000
&NAME    LA    @00,4092      GET 4092 TO ADD TO COMPILERS SIZE          00022000
         AL    @00,@SIZDATD  ADD COMPILERS SIZE AND SUBPOOL             00026000
         GETMAIN R,LV=(0)    GETMAIN                                    00030000
         LR    @08,@01       GET ADDRESSABLILITY TO COMMON AREA         00032000
         LA    @01,4092(0,@01) ADD 4092 AND GIVE NORMAL AREA TO COMPLR  00034000
         MEXIT                                                          00037000
.T3FMAN  ANOP                                                           00040000
&NAME    LA    @00,4092      GET 4092 CONSTANT TO ADD TO SIZDATD        00043000
         AL    @00,@SIZDATD  GET SUBPOOL AND NORMAL SIZE                00046000
         FREEMAIN R,LV=(0),A=(8)                                        00050000
         MEXIT                                                          00053000
.IKJT436 ANOP                                                           00057000
         AIF   (&IKJEXA NE 0).T6FMAN   TEST IF FIRST CALL               00059000
&IKJEXA SETA 1                                                          00061000
&NAME    LA    @01,300(0,@08) USE AREA GOTTEN IN 433 (SKIP COMMON)      00064000
         MEXIT                                                          00067000
.T6FMAN  ANOP                                                           00070000
&NAME    NOPR  @00                                                      00073000
         MEND                                                           00076000
*  */                                                                   00080000
 %IKJEXECPLS: ;                                                         00083000
                                                                        00087000
 @EJECT;                                                                00089000
 /********************************************************************/ 00091000
 /*                                                                  */ 00094000
 /* *** IKJEXEC ***      LEVEL=11/05/75     OS/VS2 RELEASE 3.0       */ 00097000
 /*                                                                  */ 00100000
 /* DESCRIPTION - PLS MAPPING MACRO FOR CONTROL BLOCKS USED BY THE   */ 00103000
 /*               TSO EXEC COMMAND PROCESSOR                         */ 00106000
 /*                                                                  */ 00110000
 /* FUNCTION    - CONTAINS CONTROL BLOCK MAPPINGS FOR THE FOLLOWING  */ 00113000
 /*               DATA AREAS USED BY THE TSO EXEC COMMAND            */ 00117000
 /*                 - PHASE 1 EXEC COMMAND COMMON DATA AREA          */ 00119000
 /*                 - EXECDATA CONTROL BLOCK                         */ 00121000
 /*                 - COMMAND PROCEDURE STORAGE BLOCK                */ 00124000
 /*                 - SYMBOLIC NAME TABLE (SNTAB)                    */ 00127000
 /*                 - SYMBOLIC VALUE TABLE (SVTAB)                   */ 00130000
 /*                 - SNTAB CONTROL SYMBOLIC PARAMETER AREA          */ 00133000
 /*                 - PHASE2 COMMON DECLARES                         */ 00136000
 /*                                                                  */ 00140000
 %GOTO PROEND;                                                          00143000
 /* METHOD OF ACCESS                                                 */ 00147000
 /*             - PHASE 1 EXEC COMMAND DATA AREA                     */ 00149000
 /*                 %IKJECDA='' TO INCLUDE MAP                       */ 00151000
 /*                 %ECDABASE='ANY BASE'  - - - DEFAULT IS           */ 00154000
 /*                                            BASED(ECDAPTR)        */ 00157000
 /*             - EXECDATA CONTROL BLOCK                             */ 00161000
 /*                 %IKJEDAT='' TO INCLUDE MAP                       */ 00164000
 /*                 %EDATBASE='ANY BASE' - - DEFAULT IS              */ 00167000
 /*                                         BASED(LSDEXEC)           */ 00170000
 /*             - COMMAND PROCEDURE STORAGE BLOCK                    */ 00173000
 /*                 %IKJCOMP='' TO INCLUDE MAP                       */ 00176000
 /*                 %COMPBASE='ANY BASE' - - DEFAULT IS              */ 00180000
 /*                                         BASED(ECDACBLK)          */ 00183000
 /*             - SYMBOLIC NAME TABLE AND ELEMENT                    */ 00186000
 /*                 %IKJNTAB='' TO INCLUDE MAP                       */ 00188000
 /*               SNTAB TABLE IS BASED ON SNTABPTR (INCLUDED)        */ 00192000
 /*               SNTAB ELEMENT IS BASED ON SNTELPTR (INCLUDED UNLESS*/ 00194000
 /*                 %IKJSNTELPTR='NO' NOT TO INCLUDE SNTELPTR        */ 00197000
 /*                                                                  */ 00200000
 /*             - SYMBOLIC VALUE TABLE AND ELEMENT                   */ 00203000
 /*                 %IKJVTAB='' TO INCLUDE MAP                       */ 00207000
 /*               SVTAB TABLE IS BASED ON SVTABPTR (INCLUDED)        */ 00209000
 /*                 %SVELBASE='ANY BASE' - USE TO SET SVTAB ELEMENT  */ 00211000
 /*                                       BASE. THE DEFAULT IS       */ 00214000
 /*                                       BASED(SNTVLPTR)            */ 00218000
 /*             - SNTAB CONTROL SYMBOLIC PARAMETER AREA              */ 00222000
 /*                 %IKJCVMAP='' TO INCLUDE MAP                      */ 00225000
 /*                 %CVARBASE='ANY BASE' - - DEFAULT IS              */ 00228000
 /*                                         BASED(SNTELFST)          */ 00231000
 /*             - PHASE2 COMMON DECLARES                             */ 00234000
 /*                 NORMALLY NOT INCLUDED. TO INCLUDE                */ 00237000
 /*                 SET %IKJEXECPHASE2='YES'                         */ 00240000
 /*                                                                  */ 00243000
 /*                                                                  */ 00246000
 /*           %INCLUDE SYSLIB(IKJEXEC)                               */ 00248000
 /*                                                                  */ 00252000
 /* NOTES        - IF AN INDIVIDUAL DATA AREA MAP IS NOT REQUIRED    */ 00254000
 /*                THEN SET THE APPROPRIATE MACRO VARIABLE TO A      */ 00257000
 /*                NON NULL STATE                                    */ 00260000
 /*                                                                  */ 00263000
 /* CHANGE ACTIVITY =                                                */ 00264000
 /* ADD NOLASTCC BIT IN EXECDATA CONTROL BLOCK               @ZA03879*/ 00265000
 /* A 020450                                                @OZ32353 */ 00266000
 /* OZ97838 - ADD SW2RTRN AND RTRNSTMT TO INDICATE RETURN            */ 00266300
 /*           FUNCTION FROM A CLIST ATTENTION EXIT           @ZA97838*/ 00266600
 /*                                                                  */ 00267000
 /* OY09313 - DEFINE STAECNT TO CONTROL RECURSIVE ABENDS     @YA09313*/ 00267400
 /*           AND ISSUE MESSAGE                              @YA09313*/ 00267800
 /*                                                                  */ 00268200
 %PROEND: ;                                                             00269000
 /********************************************************************/ 00271000
 @EJECT;                                                                00274000
    %NPAGE='@EJECT';                                                    00277000
    %IF IKJECDA^='' %THEN                                               00280000
      %GOTO EDATCHK;                                                    00283000
    %IF ECDABASE^='' %THEN                                              00286000
      %GOTO ECDA1;                                                      00290000
    %ECDABASE='BASED(ECDAPTR)';                                         00294000
    DCL                                                                 00296000
      ECDAPTR PTR(31);              /* PHASE 1 COMMON DATA ADDRESS   */ 00298000
 %ECDA1:                                                                00302000
    ;                                                                   00306000
                                                                        00308000
    /*****************************************************************/ 00310000
    /*                                                               */ 00314000
    /* PHASE 1 EXEC COMMON DATA AREA                                 */ 00317000
    /*                                                               */ 00320000
    /*****************************************************************/ 00323000
                                                                        00326000
    DCL                                                                 00330000
      1 ECDA ECDABASE,                                                  00332000
       2 ECDACPPL PTR(31),          /* CPPL ADDRESS                  */ 00336000
       2 ECDAGADD PTR(31),          /* ADDRESS OF FIRST SP78 CORE    */ 00338000
       2 ECDAEANS PTR(31),          /* PARSE PDL ADDRESS FOR EXPLICIT   00340000
                                       EXEC                          */ 00343000
       2 ECDALSD PTR(31),           /* LSD FOR THE COMMAND PROCEDURE    00346000
                                       BEING BUILT                   */ 00350000
       2 ECDAIREC PTR(31),          /* CURRENT INPUT RECORD ADDR     */ 00353000
       2 ECDACBLK PTR(31),          /* CURRENT COMMAND PROCEDURE        00357000
                                       BLOCK ADDRESS                 */ 00359000
       2 ECDACPRE PTR(31),          /* LAST COMMAND PROCEDURE RECORD    00361000
                                       ADDRESS                       */ 00364000
       2 ECDACNXT PTR(31),          /* NEXT COMMAND PROCEDURE RECORD    00367000
                                       ADDRESS                       */ 00370000
       2 ECDASPTR PTR(31),          /* ADDRESS OF IOPL PREPARED BY      00373000
                                       IKJCT430 FOR GETALINE RTN     */ 00376000
       2 ECDALCTR FIXED(31),        /* NUMBER OF COMMAND RECORDS READ   00380000
                                       FROM INPUT DATA SET           */ 00383000
       2 ECDALNEL PTR(31),          /* ADDRESS OF LAST SNTAB ELMT    */ 00386000
       2 ECDAGCNT FIXED(31),        /* GLOBAL COUNT AREA             */ 00389000
       2 ECDANDO FIXED(15),         /* OPEN DO COUNT                 */ 00392000
       2 ECDAELNG FIXED(15),        /* ALTERNATE END LENGTH          */ 00395000
       2 ECDAAEND CHAR(4),          /* ALTERNATE END                 */ 00398000
       2 ECDAFLAG CHAR(2),          /* PHASE 1 FLAG AREA             */ 00401000
        3 IMPLICIT BIT(1),          /* ON IF IMPLICIT EXEC           */ 00404000
        3 NOTEXEC BIT(1),           /* ON IF PROCEDURE CAN NOT BE       00407000
                                       EXECUTED DUE TO ERRORS        */ 00410000
        3 SP78CORE BIT(1),          /* ON WHEN SUBPOOL 78 CORE HAS      00413000
                                       BEEN GOTTEN                   */ 00416000
        3 * BIT(1),                                                     00419000
        3 * BIT(1),                                                     00422000
        3 SP78BLK BIT(1),           /* ON IF CORE HAS BEEN GOTTEN FOR   00425000
                                       THE EXEC TABLES BUT NOT CARVED   00428000
                                       UP                            */ 00431000
        3 NESTED BIT(1),            /* ON IF THIS IS A NESTED EXEC   */ 00434000
       2 * CHAR(2),                                                     00437000
       2 ECDAGETL PTR(31),          /* ADDRESS OF IKJGETL            */ 00440000
       2 ECDAGDAT PTR(31),          /* ADDRESS OF GLOBAL EXECDATA    */ 00443000
       2 ECDACPGM PTR(31),          /* SIZE OF CMD PROC GETMAIN      */ 00446000
       2 ECDAINME PTR(31),         /* ADDR OF IMPLICIT NAME          */ 00449000
        3 ECDAILNG PTR(8);         /* LENGTH OF IMPLICIT NAME        */ 00452000
    DCL                                                                 00455000
      CPPLPTR PTR(31) DEF(ECDACPPL);/* ADDRESS OF CPPL               */ 00458000
 NPAGE;                                                                 00461000
 %EDATCHK:                                                              00464000
    IF IKJEDAT^=''                                                      00467000
        %THEN                                                           00470000
      %GOTO COMPCHK;                                                    00473000
                                                                        00476000
    DCL                                                                 00480000
    /*****************************************************************/ 00482000
    /*                                                               */ 00486000
    /* EXECDATA CONTROL BLOCK                                        */ 00488000
    /*                                                               */ 00490000
    /*****************************************************************/ 00493000
                                                                        00496000
    %IF EDATBASE='' %THEN                                               00499000
      %EDATBASE='BASED(LSDEXEC)';                                       00502000
      1 EXECDATA EDATBASE,                                              00505000
       2 SNTABFST PTR(31),          /* ADDRESS OF FIRST SNTAB        */ 00510000
       2 SVTABFST PTR(31),          /* ADDRESS OF THE FIRST SVTAB    */ 00512000
       2 GEXECDAT PTR(31),          /* ADDRESS OF THE GLOBAL EXECDATA*/ 00514000
       2 LASTTSO PTR(31),           /* ADDRESS OF LAST TSO COMMAND      00518000
                                       EXECUTED                      */ 00522000
       2 * PTR(31),                 /*                               */ 00524000
        3 EXINSAVE BIT(8) BDY(BYTE),/* TERMIN INSTACK SAVE AREA      */ 00526000
       2 ERACTSTR PTR(31),          /* ADDRESS OF THE START OF THE      00530000
                                       ERROR ACTION FOR THIS CLIST -    00534000
                                       THIS FIELD IS ZERO WHEN THERE    00536000
                                       IS NO ERROR ACTION            */ 00540000
       2 ERACTEND PTR(31),          /* END OF THE ERROR ACTION RANGE */ 00542000
       2 RETPTR PTR(31),            /* ADDRESS OF THE COMMAND           00544000
                                       FOLLOWING THE ONE IN ERROR    */ 00547000
       2 EXDATFLG CHAR(4),          /* EXEC DATA FLAG AREA           */ 00550000
        3 * BIT(32),                                                    00553000
         4 CONLST BIT(1),           /* ON IF CONTROL STATEMENTS ARE     00556000
                                       TO BE LISTED AS THEY ARE         00560000
                                       EXECUTED                      */ 00563000
         4 ERRCMD BIT(1),           /* ON IF AN ERROR COMMAND IS IN     00566000
                                       EFFECT                        */ 00570000
         4 NOFLUSH BIT(1),          /* ON IF NOFLUSH OPTION IN EFFECT*/ 00572000
         4 SYMLST BIT(1),           /* ON IF SYMLIST OPTION IN EFFECT*/ 00576000
         4 ERINCNTL BIT(1),         /* ON WHEN THE PROCESSING IN AN     00578000
                                       ERROR RANGE IS A DIRECT RESULT   00580000
                                       OF A CLIST STMT ERROR         */ 00583000
         4 CMAIN BIT(1),            /* ON FOR CONTROL CLIST (MAIN)   */ 00586000
         4 NOMSG BIT(1),            /* ON FOR NOMSG OPTION           */ 00590000
         4 ATTNCMD BIT(1),          /* ON IF ATTENTION CMD IN EFFECT */ 00593000
         4 ATINCNTL BIT(1),         /* IN ATTN ON BEHALF OF ATTN     */ 00596000
         4 NOLASTCC BIT(1),         /* SKIP LASTCC UPDATE    @YA09313*/ 00596800
                                    /* AFTER STMT            @YA09313*/ 00597600
         4 *     BIT(6),            /* RESERVED              @YA09313*/ 00598600
         4 STAECNT  BIT(16),        /* CT433 STAE LOOP CTL   @YA09313*/ 00599200
       2 GEXECCNT FIXED(31),        /* NUMBER OF GLOBAL VARIABLES       00600000
                                       SUPPORTED FOR NESTED             00601000
                                       PROCEDURES                    */ 00604000
       2 EXDLMPTR PTR(31),          /* ADDRESS OF TERMIN DELIMS      */ 00607000
       2 ATACTSTR PTR(31),          /* ATTENTION ACTION START        */ 00611000
       2 ATACTEND PTR(31),          /* ATTENTION ACTION END          */ 00614000
       2 RETPTR2  PTR(31),          /* ALTERNATE RETURN POINTER     */  00617000
       2 FILEDCBS PTR(31),          /* ADDRESS OF FILE I/O DCB CHAIN*/  00621000
       2 * PTR(31);                                                     00623000
 NPAGE;                                                                 00627000
 %COMPCHK:                                                              00629000
    IF IKJCOMP^=''                                                      00632000
        %THEN                                                           00635000
      %GOTO NTABCHK;                                                    00638000
                                                                        00641000
    DCL                                                                 00644000
    /*****************************************************************/ 00647000
    /*                                                               */ 00650000
    /* MAPPING OF THE COMMAND PROCEDURE STORAGE BLOCK BUILT BY EXEC  */ 00653000
    /*                                                               */ 00656000
    /*****************************************************************/ 00659000
                                                                        00662000
    %IF COMPBASE='' %THEN                                               00665000
      %COMPBASE='BASED(ECDACBLK)';                                      00668000
      1 COMPROC COMPBASE,                                               00671000
       2 COMPRPTR PTR(31),          /* ADDRESS OF NEXT COMMAND          00674000
                                       PROCEDURE BLOCK               */ 00677000
        4 COMPRID PTR(8),           /* BLOCK NUMBER FOR THIS COMMAND    00681000
                                       PROCEDURE BLOCK               */ 00684000
        4 COMPRNXT PTR(24),         /* ADDRESS OF THE NEXT COMMAND      00687000
                                       PROCEDURE STORAGE BLOCK - THIS   00690000
                                       FIELD IS ZERO IF THIS IS THE     00693000
                                       LAST BLOCK                    */ 00695000
       2 COMPRLNG FIXED(31),        /* LENGTH OF THIS BLOCK          */ 00697000
       2 COMPRUSE FIXED(31),        /* NUMBER OF UNUSED BYTES IN THIS   00701000
                                       BLOCK                         */ 00705000
       2 COMRCDS CHAR(*);           /* COMMAND PROCEDURE RECORD AREA    00707000
                                                                     */ 00709000
 NPAGE;                                                                 00712000
 %NTABCHK:                                                              00715000
    IF IKJNTAB^=''                                                      00718000
        %THEN                                                           00721000
      %GOTO VTABCHK;                                                    00724000
    DCL                                                                 00727000
      SNTABPTR PTR(31);             /* CURRENT SNTAB ADDRESS         */ 00730000
                                                                        00733000
      /***************************************************************/ 00736000
      /*                                                             */ 00739000
      /* SYMBOLIC NAME TABLE                                         */ 00742000
      /*                                                             */ 00745000
      /***************************************************************/ 00748000
    DCL                                                                 00751000
      1 SNTAB BASED(SNTABPTR),      /* SNTAB TABLE HEADER            */ 00754000
       2 SNTABNXT PTR(31),          /* ADDRESS OF NEXT SNTAB         */ 00757000
       2 SNTABLNG FIXED(31),        /* LENGTH OF THIS SNTAB          */ 00760000
       2 SNTABUSE FIXED(31),        /* NUMBER OF BYTES IN THIS SNTAB    00763000
                                       THAT ARE IN USE               */ 00766000
       2 SNTELFST CHAR(*);          /* FIRST SNTAB ELEMENT           */ 00770000
                                                                        00773000
                                                                        00776000
                                                                        00779000
 %IF  IKJSNTELPTR='NO' %THEN                                            00782000
   %GOTO  NOSNTELPTR;                                                   00785000
    DCL                                                                 00788000
      SNTELPTR PTR(31);             /* CURRENT SNTAB ELEMENT ADDRESS */ 00791000
 %NOSNTELPTR: ;                                                         00794000
    /*****************************************************************/ 00797000
    /*                                                               */ 00800000
    /* SYMBOLIC NAME TABLE ELEMENT                                   */ 00803000
    /*                                                               */ 00806000
    /*****************************************************************/ 00810000
    DCL                                                                 00812000
      1 SNTELEM BASED(SNTELPTR),    /* SNTAB ELEMENT                 */ 00816000
       2 SNTVLPTR PTR(31),          /* ADDRESS OF THE SVTAB ELEMENT     00818000
                                       FOR THIS SYMBOLIC PARAMETER OR*/ 00820000
        3 SNTGVAL FIXED(31),        /* THE GLOBAL VARIABLE NAME IF      00825000
                                       PARAMETER IS GLOBAL           */ 00828000
       2 SNTFLAGS CHAR(2),          /* SNTAB ELEMENT FLAGS - DEFINES    00831000
                                       THE TYPE OF PARM              */ 00833000
        3 SNTPOSIT BIT(1),          /* POSITIONAL ELEMENT            */ 00837000
        3 SNTKEY BIT(1),            /* KEYWORD ELEMENT               */ 00839000
        3 SNTKEYW BIT(1),           /* KEYWORD WITH VALUE ELEMENT    */ 00842000
        3 SNTLABEL BIT(1),          /* LABEL ELEMENT                 */ 00845000
        3 SNTNOSCN BIT(1),          /* VARIABLE NOT RESCANNABLE      */ 00848000
        3 SNTNAUTH BIT(1),          /* CONTROL VARIABLE CAN NOT BE      00851000
                                       SET BY THE USER               */ 00854000
        3 SNTEVAL BIT(1),           /* CONTROL VARIABLE REQUIRES        00857000
                                       IMMEDIATE EVALUATION          */ 00860000
        3 SNTLAST BIT(1),           /* DEFINES THE LAST ELEMENT IN      00863000
                                       THIS SNTAB                    */ 00866000
        3 SNTGLOB BIT(1),           /* VARIABLE IS A GLOBAL VAR      */ 00869000
        3 * BIT(7),                 /* RESERVED                      */ 00872000
       2 SNTLNG FIXED(15),          /* LENGTH OF THE SYMBOLIC           00875000
                                       PARAMETER NAME                */ 00878000
       2 SNTDATA CHAR(*);           /* NAME OF THE SYMBOLIC PARAMETER   00881000
                                                                     */ 00884000
 NPAGE;                                                                 00887000
 %VTABCHK:                                                              00891000
    IF IKJVTAB^=''                                                      00893000
        %THEN                                                           00897000
      %GOTO CVARCHK;                                                    00899000
    DCL                                                                 00903000
      SVTABPTR PTR(31);             /* CURRENT SVTAB ADDRESS         */ 00905000
                                                                        00907000
    /*****************************************************************/ 00910000
    /*                                                               */ 00913000
    /* SYMBOLIC VALUE TABLE                                          */ 00916000
    /*                                                               */ 00919000
    /*****************************************************************/ 00922000
                                                                        00925000
    DCL                                                                 00928000
      1 SVTAB BASED(SVTABPTR),      /* SVTAB TABLE HEADER            */ 00931000
       2 SVTABNXT PTR(31),          /* ADDRESS OF NEXT SVTAB         */ 00934000
       2 SVTABLNG FIXED(31),        /* LENGTH OF THIS SVTAB          */ 00937000
       2 SVTABUSE FIXED(31),        /* NUMBER OF BYTES IN THIS SVTAB    00941000
                                       THAT ARE IN USE               */ 00944000
       2 SVTABFRE FIXED(31),        /* NUMBER OF BYTES IN THIS SVTAB    00947000
                                       THAT ARE ASSIGNED (IN USE) BUT   00951000
                                       UNUSED                        */ 00953000
       2 SVTELFST CHAR(*);          /* FIRST SYMBOLIC VALUE ELEMENT  */ 00957000
                                                                        00959000
    /*****************************************************************/ 00961000
    /*                                                               */ 00964000
    /* SYMBOLIC VALUE TABLE ELEMENT                                  */ 00967000
    /*                                                               */ 00971000
    /*****************************************************************/ 00974000
                                                                        00977000
    %IF SVELBASE='' %THEN                                               00981000
      %SVELBASE='BASED(SNTVLPTR)';                                      00983000
    DCL                                                                 00987000
      1 SVTELEM SVELBASE,           /* SVTAB ELEMENT                 */ 00989000
       2 SVTLNG FIXED(15),          /* LENGTH OF THE SYMBOLIC           00991000
                                       PARMETER VALUE                */ 00994000
       2 SVTORIG FIXED(15),         /* ORIGIONAL LENGTH OF THIS         00997000
                                       ELEMENT                       */ 01001000
       2 SVTDATA CHAR(*);           /* VALUE OF THE SYMBOLIC            01004000
                                       PARAMETER                        01007000
                                                                     */ 01011000
 NPAGE;                                                                 01013000
 %CVARCHK:                                                              01017000
    IF IKJCVMAP^=''                                                     01019000
        %THEN                                                           01021000
      %GOTO EXECPHASE2CK;                                               01024000
                                                                        01027000
    DCL                                                                 01031000
    /*****************************************************************/ 01034000
    /*                                                               */ 01037000
    /* MAP OF EXEC COMMAND CONTROL VARIABLES IN THE FIRST SNTAB FIXED*/ 01041000
    /* AREA. CORRECT PROCESSING IS DEPENDENT UPON THE POSITIONS OF   */ 01041200
    /* THE VARIABLES IN THIS STRUCTURE. THE ORDER OF VARIABLES IN    */ 01041900
    /* THIS STRUCTURE MUST AGREE WITH THE NULLVARX TABLE. NOTE THAT  */ 01042600
    /* THE FIRST 10 VARIABLES ARE INITIALIZED AS REQUIRING IMMEDIATE */ 01043300
    /* EVALUATION (IN IKJCT433) AND THE FIRST 15 ARE INITIALIZED AS  */ 01044000
    /* BEING NOT AUTHORIZED (THAT IS, A USER MAY NOT SET THEM).      */ 01044700
    /*                                                               */ 01047000
    /*****************************************************************/ 01049000
                                                                        01051000
    %IF CVARBASE='' %THEN                                               01054000
      %CVARBASE='DEF(SNTELFST)';                                        01057000